@<TRIPOS>MOLECULE
Molecule
  402   417     1     0     0
SMALL
dc


@<TRIPOS>ATOM
      1 C1          -0.2790     0.3620    -0.5360 cc         1 UNL       0.000000
      2 C2           1.0880     0.4120    -0.6980 cd         1 UNL       0.000000
      3 C3           1.6590     1.5250     0.0000 cd         1 UNL       0.000000
      4 C4           0.6950     2.2600     0.6540 cc         1 UNL       0.000000
      5 S5          -0.8310     1.6160     0.4220 ss         1 UNL       0.000000
      6 H6          -0.9420    -0.3860    -0.9660 h4         1 UNL       0.000000
      7 H7           1.6820    -0.2950    -1.2790 ha         1 UNL       0.000000
      8 C8           3.1670     1.8350    -0.0010 c3         1 UNL       0.000000
      9 H9           3.6180     1.4110    -0.8740 hc         1 UNL       0.000000
     10 H10          3.3140     2.8950    -0.0020 hc         1 UNL       0.000000
     11 C11          3.8160     1.2290     1.2570 c3         1 UNL       0.000000
     12 H12          3.6700     0.1690     1.2590 hc         1 UNL       0.000000
     13 H13          3.3660     1.6530     2.1310 hc         1 UNL       0.000000
     14 C14          5.3250     1.5380     1.2560 c3         1 UNL       0.000000
     15 H15          5.7750     1.1150     0.3830 hc         1 UNL       0.000000
     16 H16          5.4710     2.5980     1.2550 hc         1 UNL       0.000000
     17 C17          5.9740     0.9320     2.5150 c3         1 UNL       0.000000
     18 H18          5.8270    -0.1280     2.5160 hc         1 UNL       0.000000
     19 H19          5.5230     1.3560     3.3880 hc         1 UNL       0.000000
     20 C20          7.4820     1.2420     2.5140 c3         1 UNL       0.000000
     21 H21          7.9320     0.8240     1.6380 hc         1 UNL       0.000000
     22 H22          7.6290     2.3020     2.5180 hc         1 UNL       0.000000
     23 C23          8.1330     0.6280     3.7680 c3         1 UNL       0.000000
     24 H24          7.9860    -0.4310     3.7640 hc         1 UNL       0.000000
     25 H25          9.1810     0.8430     3.7660 hc         1 UNL       0.000000
     26 H26          7.6840     1.0480     4.6440 hc         1 UNL       0.000000
     27 C27          0.9470     3.5210     1.5020 cc         1 UNL       0.000000
     28 C28         -0.0170     4.2550     2.1560 cd         1 UNL       0.000000
     29 S29          2.4730     4.1640     1.7340 ss         1 UNL       0.000000
     30 C30          0.5540     5.3670     2.8550 cd         1 UNL       0.000000
     31 H31         -1.0860     4.0360     2.1560 ha         1 UNL       0.000000
     32 C32          1.9210     5.4180     2.6930 cc         1 UNL       0.000000
     33 C33         -0.2840     6.3640     3.6760 c3         1 UNL       0.000000
     34 H34          0.2330     7.2990     3.7370 hc         1 UNL       0.000000
     35 H35         -1.2310     6.5110     3.2010 hc         1 UNL       0.000000
     36 C36         -0.5030     5.8050     5.0950 c3         1 UNL       0.000000
     37 H37          0.4450     5.6590     5.5700 hc         1 UNL       0.000000
     38 H38         -1.0200     4.8700     5.0340 hc         1 UNL       0.000000
     39 C39         -1.3410     6.8030     5.9160 c3         1 UNL       0.000000
     40 H40         -0.8230     7.7370     5.9770 hc         1 UNL       0.000000
     41 H41         -2.2880     6.9490     5.4410 hc         1 UNL       0.000000
     42 C42         -1.5590     6.2440     7.3340 c3         1 UNL       0.000000
     43 H43         -0.6120     6.0970     7.8100 hc         1 UNL       0.000000
     44 H44         -2.0760     5.3090     7.2730 hc         1 UNL       0.000000
     45 C45         -2.3970     7.2410     8.1560 c3         1 UNL       0.000000
     46 H46         -1.8830     8.1780     8.2110 hc         1 UNL       0.000000
     47 H47         -3.3470     7.3830     7.6830 hc         1 UNL       0.000000
     48 C48         -2.6080     6.6860     9.5760 c3         1 UNL       0.000000
     49 H49         -1.6590     6.5430    10.0480 hc         1 UNL       0.000000
     50 H50         -3.1890     7.3790    10.1480 hc         1 UNL       0.000000
     51 H51         -3.1230     5.7500     9.5210 hc         1 UNL       0.000000
     52 C52          2.8580     6.4770     3.3010 cc         1 UNL       0.000000
     53 C53          4.2250     6.5280     3.1400 cd         1 UNL       0.000000
     54 S54          2.3060     7.7310     4.2610 ss         1 UNL       0.000000
     55 C55          4.7960     7.6410     3.8380 cd         1 UNL       0.000000
     56 H56          4.8190     5.8210     2.5580 ha         1 UNL       0.000000
     57 C57          3.8320     8.3750     4.4920 cc         1 UNL       0.000000
     58 C58          6.3040     7.9500     3.8370 c3         1 UNL       0.000000
     59 C59          4.0840     9.6350     5.3410 cc         1 UNL       0.000000
     60 H60          6.7550     7.5270     2.9630 hc         1 UNL       0.000000
     61 H61          6.4510     9.0110     3.8350 hc         1 UNL       0.000000
     62 C62          6.9540     7.3440     5.0940 c3         1 UNL       0.000000
     63 C63          3.1200    10.3690     5.9950 cd         1 UNL       0.000000
     64 S64          5.6100    10.2790     5.5730 ss         1 UNL       0.000000
     65 H65          6.8080     6.2840     5.0960 hc         1 UNL       0.000000
     66 H66          6.5040     7.7670     5.9680 hc         1 UNL       0.000000
     67 C67          8.4630     7.6540     5.0930 c3         1 UNL       0.000000
     68 C68          3.6910    11.4810     6.6940 cd         1 UNL       0.000000
     69 H69          2.0510    10.1490     5.9960 ha         1 UNL       0.000000
     70 C70          5.0580    11.5320     6.5330 cc         1 UNL       0.000000
     71 H71          8.9130     7.2310     4.2200 hc         1 UNL       0.000000
     72 H72          8.6090     8.7140     5.0920 hc         1 UNL       0.000000
     73 C73          9.1120     7.0480     6.3510 c3         1 UNL       0.000000
     74 C74          2.8530    12.4780     7.5170 c3         1 UNL       0.000000
     75 H75          8.9660     5.9880     6.3520 hc         1 UNL       0.000000
     76 H76          8.6620     7.4710     7.2240 hc         1 UNL       0.000000
     77 C77         10.6210     7.3580     6.3500 c3         1 UNL       0.000000
     78 H78          3.3700    13.4130     7.5780 hc         1 UNL       0.000000
     79 H79          1.9060    12.6240     7.0420 hc         1 UNL       0.000000
     80 C80          2.6350    11.9180     8.9350 c3         1 UNL       0.000000
     81 H81         11.0700     6.9400     5.4730 hc         1 UNL       0.000000
     82 H82         10.7670     8.4180     6.3550 hc         1 UNL       0.000000
     83 C83         11.2720     6.7440     7.6030 c3         1 UNL       0.000000
     84 H84          3.5820    11.7710     9.4100 hc         1 UNL       0.000000
     85 H85          2.1180    10.9830     8.8730 hc         1 UNL       0.000000
     86 C86          1.7970    12.9150     9.7570 c3         1 UNL       0.000000
     87 H87         11.1240     5.6840     7.5990 hc         1 UNL       0.000000
     88 H88         12.3200     6.9580     7.6020 hc         1 UNL       0.000000
     89 H89         10.8230     7.1620     8.4800 hc         1 UNL       0.000000
     90 H90          2.3140    13.8500     9.8180 hc         1 UNL       0.000000
     91 H91          0.8500    13.0610     9.2820 hc         1 UNL       0.000000
     92 C92          1.5790    12.3550    11.1750 c3         1 UNL       0.000000
     93 H93          2.5260    12.2080    11.6500 hc         1 UNL       0.000000
     94 H94          1.0620    11.4200    11.1140 hc         1 UNL       0.000000
     95 C95          0.7410    13.3520    11.9970 c3         1 UNL       0.000000
     96 H96          1.2550    14.2890    12.0530 hc         1 UNL       0.000000
     97 H97         -0.2090    13.4940    11.5250 hc         1 UNL       0.000000
     98 C98          0.5310    12.7960    13.4180 c3         1 UNL       0.000000
     99 H99          1.4800    12.6530    13.8890 hc         1 UNL       0.000000
    100 H100        -0.0510    13.4890    13.9890 hc         1 UNL       0.000000
    101 H101         0.0160    11.8600    13.3620 hc         1 UNL       0.000000
    102 C102         5.9950    12.5910     7.1410 cc         1 UNL       0.000000
    103 C103         7.3620    12.6420     6.9790 cd         1 UNL       0.000000
    104 S104         5.4430    13.8440     8.1010 ss         1 UNL       0.000000
    105 C105         7.9330    13.7550     7.6770 cd         1 UNL       0.000000
    106 H106         7.9560    11.9350     6.3970 ha         1 UNL       0.000000
    107 C107         6.9690    14.4890     8.3320 cc         1 UNL       0.000000
    108 C108         9.4410    14.0650     7.6750 c3         1 UNL       0.000000
    109 C109         7.2210    15.7490     9.1810 cc         1 UNL       0.000000
    110 H110         9.8920    13.6420     6.8020 hc         1 UNL       0.000000
    111 H111         9.5870    15.1250     7.6740 hc         1 UNL       0.000000
    112 C112        10.0910    13.4590     8.9330 c3         1 UNL       0.000000
    113 C113         6.2570    16.4820     9.8360 cd         1 UNL       0.000000
    114 S114         8.7470    16.3930     9.4120 ss         1 UNL       0.000000
    115 H115         9.9450    12.3990     8.9340 hc         1 UNL       0.000000
    116 H116         9.6410    13.8810     9.8060 hc         1 UNL       0.000000
    117 C117        11.6000    13.7690     8.9310 c3         1 UNL       0.000000
    118 C118         6.8280    17.5940    10.5350 cd         1 UNL       0.000000
    119 H119         5.1880    16.2630     9.8360 ha         1 UNL       0.000000
    120 C120         8.1950    17.6450    10.3730 cc         1 UNL       0.000000
    121 H121        12.0500    13.3460     8.0570 hc         1 UNL       0.000000
    122 H122        11.7460    14.8290     8.9300 hc         1 UNL       0.000000
    123 C123        12.2500    13.1620    10.1880 c3         1 UNL       0.000000
    124 C124         5.9900    18.5900    11.3580 c3         1 UNL       0.000000
    125 H125        12.1040    12.1020    10.1890 hc         1 UNL       0.000000
    126 H126        11.8000    13.5850    11.0620 hc         1 UNL       0.000000
    127 C127        13.7580    13.4730    10.1870 c3         1 UNL       0.000000
    128 H128         6.5070    19.5260    11.4190 hc         1 UNL       0.000000
    129 H129         5.0430    18.7370    10.8830 hc         1 UNL       0.000000
    130 C130         5.7730    18.0300    12.7760 c3         1 UNL       0.000000
    131 H131        14.2080    13.0550     9.3100 hc         1 UNL       0.000000
    132 H132        13.9050    14.5320    10.1920 hc         1 UNL       0.000000
    133 C133        14.4100    12.8580    11.4400 c3         1 UNL       0.000000
    134 H134         6.7210    17.8840    13.2510 hc         1 UNL       0.000000
    135 H135         5.2560    17.0950    12.7140 hc         1 UNL       0.000000
    136 C136         4.9350    19.0270    13.5980 c3         1 UNL       0.000000
    137 H137        14.2630    11.7980    11.4350 hc         1 UNL       0.000000
    138 H138        15.4580    13.0730    11.4380 hc         1 UNL       0.000000
    139 H139        13.9620    13.2770    12.3160 hc         1 UNL       0.000000
    140 H140         5.4520    19.9620    13.6600 hc         1 UNL       0.000000
    141 H141         3.9870    19.1730    13.1240 hc         1 UNL       0.000000
    142 C142         4.7180    18.4660    15.0160 c3         1 UNL       0.000000
    143 H143         5.6650    18.3200    15.4910 hc         1 UNL       0.000000
    144 H144         4.2010    17.5310    14.9550 hc         1 UNL       0.000000
    145 C145         3.8800    19.4630    15.8390 c3         1 UNL       0.000000
    146 H146         4.3940    20.4000    15.8950 hc         1 UNL       0.000000
    147 H147         2.9300    19.6050    15.3680 hc         1 UNL       0.000000
    148 C148         3.6700    18.9070    17.2600 c3         1 UNL       0.000000
    149 H149         4.6200    18.7640    17.7310 hc         1 UNL       0.000000
    150 H150         3.0890    19.5990    17.8320 hc         1 UNL       0.000000
    151 H151         3.1550    17.9700    17.2040 hc         1 UNL       0.000000
    152 C152         9.1330    18.7050    10.9810 cc         1 UNL       0.000000
    153 C153        10.4990    18.7560    10.8190 cd         1 UNL       0.000000
    154 S154         8.5810    19.9570    11.9410 ss         1 UNL       0.000000
    155 C155        11.0700    19.8690    11.5170 cd         1 UNL       0.000000
    156 H156        11.0930    18.0490    10.2360 ha         1 UNL       0.000000
    157 C157        10.1060    20.6020    12.1720 cc         1 UNL       0.000000
    158 C158        12.5780    20.1790    11.5150 c3         1 UNL       0.000000
    159 C159        10.3590    21.8620    13.0210 cc         1 UNL       0.000000
    160 H160        13.0280    19.7570    10.6410 hc         1 UNL       0.000000
    161 H161        12.7240    21.2390    11.5140 hc         1 UNL       0.000000
    162 C162        13.2290    19.5720    12.7720 c3         1 UNL       0.000000
    163 C163         9.3950    22.5950    13.6770 cd         1 UNL       0.000000
    164 S164        11.8840    22.5060    13.2530 ss         1 UNL       0.000000
    165 H165        13.0830    18.5120    12.7720 hc         1 UNL       0.000000
    166 H166        12.7790    19.9950    13.6460 hc         1 UNL       0.000000
    167 C167        14.7370    19.8830    12.7700 c3         1 UNL       0.000000
    168 C168         9.9650    23.7070    14.3770 cd         1 UNL       0.000000
    169 H169         8.3250    22.3750    13.6780 ha         1 UNL       0.000000
    170 C170        11.3320    23.7590    14.2140 cc         1 UNL       0.000000
    171 H171        15.1870    19.4600    11.8960 hc         1 UNL       0.000000
    172 H172        14.8830    20.9430    12.7690 hc         1 UNL       0.000000
    173 C173        15.3880    19.2760    14.0270 c3         1 UNL       0.000000
    174 C174         9.1280    24.7030    15.2000 c3         1 UNL       0.000000
    175 H175        15.2420    18.2160    14.0270 hc         1 UNL       0.000000
    176 H176        14.9380    19.6990    14.9000 hc         1 UNL       0.000000
    177 C177        16.8960    19.5870    14.0240 c3         1 UNL       0.000000
    178 H178         9.6440    25.6380    15.2610 hc         1 UNL       0.000000
    179 H179         8.1800    24.8490    14.7260 hc         1 UNL       0.000000
    180 C180         8.9110    24.1420    16.6180 c3         1 UNL       0.000000
    181 H181        17.3450    19.1690    13.1470 hc         1 UNL       0.000000
    182 H182        17.0420    20.6470    14.0300 hc         1 UNL       0.000000
    183 C183        17.5490    18.9720    15.2770 c3         1 UNL       0.000000
    184 H184         9.8590    23.9950    17.0920 hc         1 UNL       0.000000
    185 H185         8.3940    23.2070    16.5560 hc         1 UNL       0.000000
    186 C186         8.0730    25.1380    17.4410 c3         1 UNL       0.000000
    187 H187        17.4020    17.9120    15.2720 hc         1 UNL       0.000000
    188 H188        18.5970    19.1870    15.2750 hc         1 UNL       0.000000
    189 H189        17.1010    19.3900    16.1540 hc         1 UNL       0.000000
    190 H190         8.5900    26.0730    17.5030 hc         1 UNL       0.000000
    191 H191         7.1250    25.2850    16.9670 hc         1 UNL       0.000000
    192 C192         7.8560    24.5770    18.8590 c3         1 UNL       0.000000
    193 H193         8.8040    24.4310    19.3330 hc         1 UNL       0.000000
    194 H194         7.3400    23.6420    18.7970 hc         1 UNL       0.000000
    195 C195         7.0190    25.5730    19.6820 c3         1 UNL       0.000000
    196 H196         7.5320    26.5100    19.7380 hc         1 UNL       0.000000
    197 H197         6.0680    25.7150    19.2110 hc         1 UNL       0.000000
    198 C198         6.8090    25.0170    21.1030 c3         1 UNL       0.000000
    199 H199         7.7590    24.8740    21.5730 hc         1 UNL       0.000000
    200 H200         6.2280    25.7090    21.6750 hc         1 UNL       0.000000
    201 H201         6.2950    24.0800    21.0470 hc         1 UNL       0.000000
    202 C202        12.2700    24.8180    14.8220 cc         1 UNL       0.000000
    203 C203        13.6360    24.8690    14.6590 cd         1 UNL       0.000000
    204 S204        11.7180    26.0700    15.7830 ss         1 UNL       0.000000
    205 C205        14.2070    25.9820    15.3570 cd         1 UNL       0.000000
    206 H206        14.2300    24.1630    14.0760 ha         1 UNL       0.000000
    207 C207        13.2430    26.7150    16.0140 cc         1 UNL       0.000000
    208 C208        15.7150    26.2930    15.3550 c3         1 UNL       0.000000
    209 C209        13.4960    27.9740    16.8630 cc         1 UNL       0.000000
    210 H210        16.1650    25.8710    14.4810 hc         1 UNL       0.000000
    211 H211        15.8610    27.3530    15.3540 hc         1 UNL       0.000000
    212 C212        16.3670    25.6860    16.6110 c3         1 UNL       0.000000
    213 C213        12.5320    28.7070    17.5190 cd         1 UNL       0.000000
    214 S214        15.0210    28.6190    17.0940 ss         1 UNL       0.000000
    215 H215        16.2210    24.6260    16.6120 hc         1 UNL       0.000000
    216 H216        15.9170    26.1080    17.4860 hc         1 UNL       0.000000
    217 C217        17.8750    25.9970    16.6090 c3         1 UNL       0.000000
    218 C218        13.1030    29.8190    18.2190 cd         1 UNL       0.000000
    219 H219        11.4630    28.4870    17.5200 ha         1 UNL       0.000000
    220 C220        14.4690    29.8710    18.0550 cc         1 UNL       0.000000
    221 H221        18.3250    25.5740    15.7350 hc         1 UNL       0.000000
    222 H222        18.0210    27.0570    16.6090 hc         1 UNL       0.000000
    223 C223        18.5260    25.3890    17.8660 c3         1 UNL       0.000000
    224 C224        12.2650    30.8140    19.0430 c3         1 UNL       0.000000
    225 H225        18.3810    24.3290    17.8660 hc         1 UNL       0.000000
    226 H226        18.0760    25.8120    18.7400 hc         1 UNL       0.000000
    227 C227        20.0350    25.7000    17.8630 c3         1 UNL       0.000000
    228 H228        12.7810    31.7500    19.1040 hc         1 UNL       0.000000
    229 H229        11.3170    30.9610    18.5690 hc         1 UNL       0.000000
    230 C230        12.0490    30.2530    20.4600 c3         1 UNL       0.000000
    231 H231        20.4830    25.2840    16.9860 hc         1 UNL       0.000000
    232 H232        20.1800    26.7600    17.8690 hc         1 UNL       0.000000
    233 C233        20.6870    25.0850    19.1150 c3         1 UNL       0.000000
    234 H234        12.9970    30.1070    20.9340 hc         1 UNL       0.000000
    235 H235        11.5330    29.3180    20.3990 hc         1 UNL       0.000000
    236 C236        11.2110    31.2490    21.2840 c3         1 UNL       0.000000
    237 H237        20.5410    24.0260    19.1100 hc         1 UNL       0.000000
    238 H238        21.7350    25.3010    19.1130 hc         1 UNL       0.000000
    239 H239        20.2390    25.5030    19.9920 hc         1 UNL       0.000000
    240 H240        11.7280    32.1840    21.3460 hc         1 UNL       0.000000
    241 H241        10.2630    31.3950    20.8100 hc         1 UNL       0.000000
    242 C242        10.9950    30.6880    22.7020 c3         1 UNL       0.000000
    243 H243        11.9430    30.5410    23.1760 hc         1 UNL       0.000000
    244 H244        10.4790    29.7530    22.6400 hc         1 UNL       0.000000
    245 C245        10.1570    31.6830    23.5260 c3         1 UNL       0.000000
    246 H246        10.6710    32.6200    23.5820 hc         1 UNL       0.000000
    247 H247         9.2070    31.8250    23.0550 hc         1 UNL       0.000000
    248 C248         9.9490    31.1260    24.9460 c3         1 UNL       0.000000
    249 H249        10.8990    30.9830    25.4170 hc         1 UNL       0.000000
    250 H250         9.3680    31.8180    25.5190 hc         1 UNL       0.000000
    251 H251         9.4340    30.1900    24.8900 hc         1 UNL       0.000000
    252 C252        15.4070    30.9300    18.6640 cc         1 UNL       0.000000
    253 C253        16.7730    30.9820    18.5000 cd         1 UNL       0.000000
    254 S254        14.8550    32.1820    19.6250 ss         1 UNL       0.000000
    255 C255        17.3440    32.0950    19.1990 cd         1 UNL       0.000000
    256 H256        17.3670    30.2760    17.9170 ha         1 UNL       0.000000
    257 C257        16.3810    32.8270    19.8560 cc         1 UNL       0.000000
    258 C258        18.8520    32.4060    19.1960 c3         1 UNL       0.000000
    259 C259        16.6330    34.0870    20.7050 cc         1 UNL       0.000000
    260 H260        19.3020    31.9840    18.3210 hc         1 UNL       0.000000
    261 H261        18.9980    33.4660    19.1960 hc         1 UNL       0.000000
    262 C262        19.5040    31.7980    20.4520 c3         1 UNL       0.000000
    263 C263        15.6690    34.8190    21.3620 cd         1 UNL       0.000000
    264 S264        18.1590    34.7320    20.9360 ss         1 UNL       0.000000
    265 H265        19.3590    30.7380    20.4520 hc         1 UNL       0.000000
    266 H266        19.0550    32.2200    21.3270 hc         1 UNL       0.000000
    267 C267        21.0130    32.1100    20.4490 c3         1 UNL       0.000000
    268 C268        16.2400    35.9310    22.0620 cd         1 UNL       0.000000
    269 H269        14.6000    34.5990    21.3630 ha         1 UNL       0.000000
    270 C270        17.6070    35.9830    21.8980 cc         1 UNL       0.000000
    271 H271        21.4620    31.6880    19.5750 hc         1 UNL       0.000000
    272 H272        21.1580    33.1700    20.4490 hc         1 UNL       0.000000
    273 C273        21.6650    31.5020    21.7050 c3         1 UNL       0.000000
    274 C274        15.4030    36.9260    22.8860 c3         1 UNL       0.000000
    275 H275        21.5190    30.4420    21.7050 hc         1 UNL       0.000000
    276 H276        21.2150    31.9240    22.5800 hc         1 UNL       0.000000
    277 C277        23.1730    31.8130    21.7020 c3         1 UNL       0.000000
    278 H278        15.9190    37.8610    22.9480 hc         1 UNL       0.000000
    279 H279        14.4550    37.0720    22.4130 hc         1 UNL       0.000000
    280 C280        15.1870    36.3640    24.3040 c3         1 UNL       0.000000
    281 H281        23.6210    31.3970    20.8250 hc         1 UNL       0.000000
    282 H282        23.3180    32.8730    21.7090 hc         1 UNL       0.000000
    283 C283        23.8260    31.1980    22.9540 c3         1 UNL       0.000000
    284 H284        16.1350    36.2180    24.7780 hc         1 UNL       0.000000
    285 H285        14.6710    35.4290    24.2420 hc         1 UNL       0.000000
    286 C286        14.3500    37.3590    25.1280 c3         1 UNL       0.000000
    287 H287        23.6800    30.1380    22.9480 hc         1 UNL       0.000000
    288 H288        24.8740    31.4140    22.9510 hc         1 UNL       0.000000
    289 H289        23.3780    31.6160    23.8320 hc         1 UNL       0.000000
    290 H290        14.8660    38.2940    25.1900 hc         1 UNL       0.000000
    291 H291        13.4010    37.5060    24.6550 hc         1 UNL       0.000000
    292 C292        14.1340    36.7970    26.5460 c3         1 UNL       0.000000
    293 H293        15.0820    36.6510    27.0200 hc         1 UNL       0.000000
    294 H294        13.6180    35.8620    26.4840 hc         1 UNL       0.000000
    295 C295        13.2960    37.7930    27.3710 c3         1 UNL       0.000000
    296 H296        13.8100    38.7300    27.4270 hc         1 UNL       0.000000
    297 H297        12.3460    37.9340    26.9000 hc         1 UNL       0.000000
    298 C298        13.0880    37.2350    28.7910 c3         1 UNL       0.000000
    299 H299        14.0390    37.0920    29.2610 hc         1 UNL       0.000000
    300 H300        12.5070    37.9270    29.3640 hc         1 UNL       0.000000
    301 H301        12.5740    36.2980    28.7350 hc         1 UNL       0.000000
    302 C302        18.5440    37.0420    22.5060 cc         1 UNL       0.000000
    303 C303        19.9110    37.0940    22.3420 cd         1 UNL       0.000000
    304 S304        17.9930    38.2940    23.4680 ss         1 UNL       0.000000
    305 C305        20.4820    38.2070    23.0410 cd         1 UNL       0.000000
    306 H306        20.5050    36.3890    21.7590 ha         1 UNL       0.000000
    307 C307        19.5180    38.9390    23.6980 cc         1 UNL       0.000000
    308 C308        21.9900    38.5180    23.0380 c3         1 UNL       0.000000
    309 C309        19.7710    40.1980    24.5480 cc         1 UNL       0.000000
    310 H310        22.4390    38.0970    22.1630 hc         1 UNL       0.000000
    311 H311        22.1350    39.5780    23.0380 hc         1 UNL       0.000000
    312 C312        22.6420    37.9110    24.2930 c3         1 UNL       0.000000
    313 C313        18.8070    40.9300    25.2060 cd         1 UNL       0.000000
    314 S314        21.2960    40.8430    24.7790 ss         1 UNL       0.000000
    315 H315        22.4970    36.8500    24.2930 hc         1 UNL       0.000000
    316 H316        22.1930    38.3320    25.1680 hc         1 UNL       0.000000
    317 C317        24.1500    38.2220    24.2900 c3         1 UNL       0.000000
    318 C318        19.3780    42.0410    25.9060 cd         1 UNL       0.000000
    319 H319        17.7380    40.7100    25.2070 ha         1 UNL       0.000000
    320 C320        20.7440    42.0940    25.7410 cc         1 UNL       0.000000
    321 H321        24.6000    37.8010    23.4150 hc         1 UNL       0.000000
    322 H322        24.2960    39.2820    24.2900 hc         1 UNL       0.000000
    323 C323        24.8030    37.6140    25.5460 c3         1 UNL       0.000000
    324 C324        18.5410    43.0360    26.7310 c3         1 UNL       0.000000
    325 H325        24.6580    36.5540    25.5460 hc         1 UNL       0.000000
    326 H326        24.3540    38.0360    26.4210 hc         1 UNL       0.000000
    327 C327        26.3110    37.9260    25.5430 c3         1 UNL       0.000000
    328 H328        19.0560    43.9720    26.7930 hc         1 UNL       0.000000
    329 H329        17.5920    43.1830    26.2570 hc         1 UNL       0.000000
    330 C330        18.3250    42.4740    28.1480 c3         1 UNL       0.000000
    331 H331        26.7590    37.5100    24.6650 hc         1 UNL       0.000000
    332 H332        26.4560    38.9860    25.5490 hc         1 UNL       0.000000
    333 C333        26.9650    37.3110    26.7940 c3         1 UNL       0.000000
    334 H334        19.2740    42.3280    28.6220 hc         1 UNL       0.000000
    335 H335        17.8090    41.5390    28.0870 hc         1 UNL       0.000000
    336 C336        17.4880    43.4690    28.9730 c3         1 UNL       0.000000
    337 H337        26.8190    36.2510    26.7880 hc         1 UNL       0.000000
    338 H338        28.0130    37.5260    26.7910 hc         1 UNL       0.000000
    339 H339        26.5170    37.7280    27.6720 hc         1 UNL       0.000000
    340 H340        18.0040    44.4040    29.0350 hc         1 UNL       0.000000
    341 H341        16.5400    43.6150    28.5000 hc         1 UNL       0.000000
    342 C342        17.2730    42.9070    30.3910 c3         1 UNL       0.000000
    343 H343        18.2210    42.7600    30.8640 hc         1 UNL       0.000000
    344 H344        16.7570    41.9710    30.3290 hc         1 UNL       0.000000
    345 C345        16.4360    43.9010    31.2160 c3         1 UNL       0.000000
    346 H346        16.9490    44.8390    31.2730 hc         1 UNL       0.000000
    347 H347        15.4850    44.0430    30.7460 hc         1 UNL       0.000000
    348 C348        16.2280    43.3430    32.6360 c3         1 UNL       0.000000
    349 H349        17.1790    43.2010    33.1060 hc         1 UNL       0.000000
    350 H350        15.6470    44.0350    33.2100 hc         1 UNL       0.000000
    351 H351        15.7140    42.4070    32.5800 hc         1 UNL       0.000000
    352 C352        21.6820    43.1540    26.3500 cc         1 UNL       0.000000
    353 C353        23.0480    43.2060    26.1850 cd         1 UNL       0.000000
    354 S354        21.1300    44.4040    27.3120 ss         1 UNL       0.000000
    355 C355        23.6190    44.3180    26.8840 cd         1 UNL       0.000000
    356 H356        23.6420    42.5010    25.6010 ha         1 UNL       0.000000
    357 C357        22.6560    45.0500    27.5420 cc         1 UNL       0.000000
    358 C358        25.1270    44.6300    26.8800 c3         1 UNL       0.000000
    359 C359        22.9080    46.3090    28.3920 cc         1 UNL       0.000000
    360 H360        25.5760    44.2090    26.0050 hc         1 UNL       0.000000
    361 H361        25.2720    45.6900    26.8810 hc         1 UNL       0.000000
    362 C362        25.7800    44.0220    28.1360 c3         1 UNL       0.000000
    363 C363        21.9450    47.0410    29.0500 cd         1 UNL       0.000000
    364 S364        24.4340    46.9550    28.6220 ss         1 UNL       0.000000
    365 H365        25.6350    42.9620    28.1350 hc         1 UNL       0.000000
    366 H366        25.3310    44.4430    29.0110 hc         1 UNL       0.000000
    367 C367        27.2880    44.3340    28.1320 c3         1 UNL       0.000000
    368 C368        22.5160    48.1520    29.7500 cd         1 UNL       0.000000
    369 H369        20.8760    46.8200    29.0520 ha         1 UNL       0.000000
    370 C370        23.8820    48.2050    29.5850 cc         1 UNL       0.000000
    371 H371        27.7380    43.9130    27.2570 hc         1 UNL       0.000000
    372 H372        27.4330    45.3940    28.1320 hc         1 UNL       0.000000
    373 C373        27.9410    43.7260    29.3870 c3         1 UNL       0.000000
    374 C374        21.6780    49.1460    30.5760 c3         1 UNL       0.000000
    375 H375        24.5440    48.9540    30.0150 h4         1 UNL       0.000000
    376 H376        27.7960    42.6660    29.3870 hc         1 UNL       0.000000
    377 H377        27.4920    44.1470    30.2620 hc         1 UNL       0.000000
    378 C378        29.4490    44.0380    29.3830 c3         1 UNL       0.000000
    379 H379        22.1940    50.0820    30.6380 hc         1 UNL       0.000000
    380 H380        20.7300    49.2930    30.1030 hc         1 UNL       0.000000
    381 C381        21.4640    48.5840    31.9930 c3         1 UNL       0.000000
    382 H382        29.8970    43.6220    28.5050 hc         1 UNL       0.000000
    383 H383        29.5950    45.0980    29.3900 hc         1 UNL       0.000000
    384 C384        30.1040    43.4220    30.6340 c3         1 UNL       0.000000
    385 H385        22.4120    48.4370    32.4660 hc         1 UNL       0.000000
    386 H386        20.9480    47.6480    31.9310 hc         1 UNL       0.000000
    387 C387        20.6270    49.5780    32.8190 c3         1 UNL       0.000000
    388 H388        29.9580    42.3620    30.6280 hc         1 UNL       0.000000
    389 H389        31.1520    43.6380    30.6310 hc         1 UNL       0.000000
    390 H390        29.6570    43.8390    31.5120 hc         1 UNL       0.000000
    391 H391        21.1420    50.5130    32.8810 hc         1 UNL       0.000000
    392 H392        19.6780    49.7240    32.3460 hc         1 UNL       0.000000
    393 C393        20.4120    49.0150    34.2360 c3         1 UNL       0.000000
    394 H394        21.3610    48.8690    34.7090 hc         1 UNL       0.000000
    395 H395        19.8960    48.0800    34.1750 hc         1 UNL       0.000000
    396 C396        19.5750    50.0100    35.0620 c3         1 UNL       0.000000
    397 H397        20.0880    50.9470    35.1190 hc         1 UNL       0.000000
    398 H398        18.6240    50.1510    34.5930 hc         1 UNL       0.000000
    399 C399        19.3680    49.4510    36.4820 c3         1 UNL       0.000000
    400 H400        20.3190    49.3080    36.9520 hc         1 UNL       0.000000
    401 H401        18.7870    50.1420    37.0560 hc         1 UNL       0.000000
    402 H402        18.8540    48.5140    36.4260 hc         1 UNL       0.000000
@<TRIPOS>BOND
     1     1     2 2   
     2     1     5 1   
     3     1     6 1   
     4     2     3 1   
     5     2     7 1   
     6     3     4 2   
     7     3     8 1   
     8     4     5 1   
     9     4    27 1   
    10     8     9 1   
    11     8    10 1   
    12     8    11 1   
    13    11    12 1   
    14    11    13 1   
    15    11    14 1   
    16    14    15 1   
    17    14    16 1   
    18    14    17 1   
    19    17    18 1   
    20    17    19 1   
    21    17    20 1   
    22    20    21 1   
    23    20    22 1   
    24    20    23 1   
    25    23    24 1   
    26    23    25 1   
    27    23    26 1   
    28    27    28 2   
    29    27    29 1   
    30    28    30 1   
    31    28    31 1   
    32    29    32 1   
    33    30    32 2   
    34    30    33 1   
    35    32    52 1   
    36    33    34 1   
    37    33    35 1   
    38    33    36 1   
    39    36    37 1   
    40    36    38 1   
    41    36    39 1   
    42    39    40 1   
    43    39    41 1   
    44    39    42 1   
    45    42    43 1   
    46    42    44 1   
    47    42    45 1   
    48    45    46 1   
    49    45    47 1   
    50    45    48 1   
    51    48    49 1   
    52    48    50 1   
    53    48    51 1   
    54    52    53 2   
    55    52    54 1   
    56    53    55 1   
    57    53    56 1   
    58    54    57 1   
    59    55    57 2   
    60    55    58 1   
    61    57    59 1   
    62    58    60 1   
    63    58    61 1   
    64    58    62 1   
    65    59    63 2   
    66    59    64 1   
    67    62    65 1   
    68    62    66 1   
    69    62    67 1   
    70    63    68 1   
    71    63    69 1   
    72    64    70 1   
    73    67    71 1   
    74    67    72 1   
    75    67    73 1   
    76    68    70 2   
    77    68    74 1   
    78    70   102 1   
    79    73    75 1   
    80    73    76 1   
    81    73    77 1   
    82    74    78 1   
    83    74    79 1   
    84    74    80 1   
    85    77    81 1   
    86    77    82 1   
    87    77    83 1   
    88    80    84 1   
    89    80    85 1   
    90    80    86 1   
    91    83    87 1   
    92    83    88 1   
    93    83    89 1   
    94    86    90 1   
    95    86    91 1   
    96    86    92 1   
    97    92    93 1   
    98    92    94 1   
    99    92    95 1   
   100    95    96 1   
   101    95    97 1   
   102    95    98 1   
   103    98    99 1   
   104    98   100 1   
   105    98   101 1   
   106   102   103 2   
   107   102   104 1   
   108   103   105 1   
   109   103   106 1   
   110   104   107 1   
   111   105   107 2   
   112   105   108 1   
   113   107   109 1   
   114   108   110 1   
   115   108   111 1   
   116   108   112 1   
   117   109   113 2   
   118   109   114 1   
   119   112   115 1   
   120   112   116 1   
   121   112   117 1   
   122   113   118 1   
   123   113   119 1   
   124   114   120 1   
   125   117   121 1   
   126   117   122 1   
   127   117   123 1   
   128   118   120 2   
   129   118   124 1   
   130   120   152 1   
   131   123   125 1   
   132   123   126 1   
   133   123   127 1   
   134   124   128 1   
   135   124   129 1   
   136   124   130 1   
   137   127   131 1   
   138   127   132 1   
   139   127   133 1   
   140   130   134 1   
   141   130   135 1   
   142   130   136 1   
   143   133   137 1   
   144   133   138 1   
   145   133   139 1   
   146   136   140 1   
   147   136   141 1   
   148   136   142 1   
   149   142   143 1   
   150   142   144 1   
   151   142   145 1   
   152   145   146 1   
   153   145   147 1   
   154   145   148 1   
   155   148   149 1   
   156   148   150 1   
   157   148   151 1   
   158   152   153 2   
   159   152   154 1   
   160   153   155 1   
   161   153   156 1   
   162   154   157 1   
   163   155   157 2   
   164   155   158 1   
   165   157   159 1   
   166   158   160 1   
   167   158   161 1   
   168   158   162 1   
   169   159   163 2   
   170   159   164 1   
   171   162   165 1   
   172   162   166 1   
   173   162   167 1   
   174   163   168 1   
   175   163   169 1   
   176   164   170 1   
   177   167   171 1   
   178   167   172 1   
   179   167   173 1   
   180   168   170 2   
   181   168   174 1   
   182   170   202 1   
   183   173   175 1   
   184   173   176 1   
   185   173   177 1   
   186   174   178 1   
   187   174   179 1   
   188   174   180 1   
   189   177   181 1   
   190   177   182 1   
   191   177   183 1   
   192   180   184 1   
   193   180   185 1   
   194   180   186 1   
   195   183   187 1   
   196   183   188 1   
   197   183   189 1   
   198   186   190 1   
   199   186   191 1   
   200   186   192 1   
   201   192   193 1   
   202   192   194 1   
   203   192   195 1   
   204   195   196 1   
   205   195   197 1   
   206   195   198 1   
   207   198   199 1   
   208   198   200 1   
   209   198   201 1   
   210   202   203 2   
   211   202   204 1   
   212   203   205 1   
   213   203   206 1   
   214   204   207 1   
   215   205   207 2   
   216   205   208 1   
   217   207   209 1   
   218   208   210 1   
   219   208   211 1   
   220   208   212 1   
   221   209   213 2   
   222   209   214 1   
   223   212   215 1   
   224   212   216 1   
   225   212   217 1   
   226   213   218 1   
   227   213   219 1   
   228   214   220 1   
   229   217   221 1   
   230   217   222 1   
   231   217   223 1   
   232   218   220 2   
   233   218   224 1   
   234   220   252 1   
   235   223   225 1   
   236   223   226 1   
   237   223   227 1   
   238   224   228 1   
   239   224   229 1   
   240   224   230 1   
   241   227   231 1   
   242   227   232 1   
   243   227   233 1   
   244   230   234 1   
   245   230   235 1   
   246   230   236 1   
   247   233   237 1   
   248   233   238 1   
   249   233   239 1   
   250   236   240 1   
   251   236   241 1   
   252   236   242 1   
   253   242   243 1   
   254   242   244 1   
   255   242   245 1   
   256   245   246 1   
   257   245   247 1   
   258   245   248 1   
   259   248   249 1   
   260   248   250 1   
   261   248   251 1   
   262   252   253 2   
   263   252   254 1   
   264   253   255 1   
   265   253   256 1   
   266   254   257 1   
   267   255   257 2   
   268   255   258 1   
   269   257   259 1   
   270   258   260 1   
   271   258   261 1   
   272   258   262 1   
   273   259   263 2   
   274   259   264 1   
   275   262   265 1   
   276   262   266 1   
   277   262   267 1   
   278   263   268 1   
   279   263   269 1   
   280   264   270 1   
   281   267   271 1   
   282   267   272 1   
   283   267   273 1   
   284   268   270 2   
   285   268   274 1   
   286   270   302 1   
   287   273   275 1   
   288   273   276 1   
   289   273   277 1   
   290   274   278 1   
   291   274   279 1   
   292   274   280 1   
   293   277   281 1   
   294   277   282 1   
   295   277   283 1   
   296   280   284 1   
   297   280   285 1   
   298   280   286 1   
   299   283   287 1   
   300   283   288 1   
   301   283   289 1   
   302   286   290 1   
   303   286   291 1   
   304   286   292 1   
   305   292   293 1   
   306   292   294 1   
   307   292   295 1   
   308   295   296 1   
   309   295   297 1   
   310   295   298 1   
   311   298   299 1   
   312   298   300 1   
   313   298   301 1   
   314   302   303 2   
   315   302   304 1   
   316   303   305 1   
   317   303   306 1   
   318   304   307 1   
   319   305   307 2   
   320   305   308 1   
   321   307   309 1   
   322   308   310 1   
   323   308   311 1   
   324   308   312 1   
   325   309   313 2   
   326   309   314 1   
   327   312   315 1   
   328   312   316 1   
   329   312   317 1   
   330   313   318 1   
   331   313   319 1   
   332   314   320 1   
   333   317   321 1   
   334   317   322 1   
   335   317   323 1   
   336   318   320 2   
   337   318   324 1   
   338   320   352 1   
   339   323   325 1   
   340   323   326 1   
   341   323   327 1   
   342   324   328 1   
   343   324   329 1   
   344   324   330 1   
   345   327   331 1   
   346   327   332 1   
   347   327   333 1   
   348   330   334 1   
   349   330   335 1   
   350   330   336 1   
   351   333   337 1   
   352   333   338 1   
   353   333   339 1   
   354   336   340 1   
   355   336   341 1   
   356   336   342 1   
   357   342   343 1   
   358   342   344 1   
   359   342   345 1   
   360   345   346 1   
   361   345   347 1   
   362   345   348 1   
   363   348   349 1   
   364   348   350 1   
   365   348   351 1   
   366   352   353 2   
   367   352   354 1   
   368   353   355 1   
   369   353   356 1   
   370   354   357 1   
   371   355   357 2   
   372   355   358 1   
   373   357   359 1   
   374   358   360 1   
   375   358   361 1   
   376   358   362 1   
   377   359   363 2   
   378   359   364 1   
   379   362   365 1   
   380   362   366 1   
   381   362   367 1   
   382   363   368 1   
   383   363   369 1   
   384   364   370 1   
   385   367   371 1   
   386   367   372 1   
   387   367   373 1   
   388   368   370 2   
   389   368   374 1   
   390   370   375 1   
   391   373   376 1   
   392   373   377 1   
   393   373   378 1   
   394   374   379 1   
   395   374   380 1   
   396   374   381 1   
   397   378   382 1   
   398   378   383 1   
   399   378   384 1   
   400   381   385 1   
   401   381   386 1   
   402   381   387 1   
   403   384   388 1   
   404   384   389 1   
   405   384   390 1   
   406   387   391 1   
   407   387   392 1   
   408   387   393 1   
   409   393   394 1   
   410   393   395 1   
   411   393   396 1   
   412   396   397 1   
   413   396   398 1   
   414   396   399 1   
   415   399   400 1   
   416   399   401 1   
   417   399   402 1   
@<TRIPOS>SUBSTRUCTURE
     1 UNL         1 TEMP              0 ****  ****    0 ROOT
